/*--------------------------------*- C++ -*----------------------------------*\
| =========                 |                                                 |
| \\      /  F ield         | OpenFOAM: The Open Source CFD Toolbox           |
|  \\    /   O peration     | Version:  2.2.1                                 |
|   \\  /    A nd           | Web:      www.OpenFOAM.org                      |
|    \\/     M anipulation  |                                                 |
\*---------------------------------------------------------------------------*/
FoamFile
{
    version     2.0;
    format      ascii;
    class       dictionary;
    object      turbulenceProperties;
}
// * * * * * * * * * * * * * * * * * * * * * * * * * * * * * * * * * * * * * //

simulationType 	RAS; //

RAS
{
    RASModel        porousKEpsilon;//laminar;//kEpsilon;//;

    turbulence      on;

    printCoeffs     on;
}

porousKEpsilonProperties // *100, /100 do not change anything
{
    "Core"
    {
        
        convergenceLength           0.1; // k and epsilon will exponentially 
		// converge to equilibrium according 
		// to this exponent
	    // k and epsilon are determined based on correlations for tubulent
	    // intensity (I) and lengh scale (L) 
	    // Turbulent intensity correlation in the form 0.16*Reynolds^-0.125
	    // Reynolds number calculated by the thermal-hydraulic class, accordin
	    // to the input data in phaseProperties	
        turbulenceIntensityCoeff    0.16; 
        turbulenceIntensityExp      -0.125;
        turbulenceLengthScaleCoeff  0.07;   // L = 0.07*Dh (Dh is the hydraulic 
					                        // diameter secificied in 
					                        // phaseProperties)
                                            // 
        DhStruct 5;
        
    }
}

// ************************************************************************* //
