/*--------------------------------*- C++ -*----------------------------------*\
| =========                 |                                                 |
| \\      /  F ield         | OpenFOAM: The Open Source CFD Toolbox           |
|  \\    /   O peration     | Version:  2.2.1                                 |
|   \\  /    A nd           | Web:      www.OpenFOAM.org                      |
|    \\/     M anipulation  |                                                 |
\*---------------------------------------------------------------------------*/
FoamFile
{
    version     2.0;
    format      ascii;
    class       volVectorField;
    location    "0";
    object      U;
}
// * * * * * * * * * * * * * * * * * * * * * * * * * * * * * * * * * * * * * //

dimensions      [ 0 1 -1 0 0 0 0 ];

internalField   uniform (0 0 0.211369); // mflow/rho/A=1173/(2413.03-0.4884*823.15)/(pi*1.2^2*0.61)


boundaryField
{
    Wall
    {
        type slip;
    }
    Outlet
    {
        type            zeroGradient;
    }
    Inlet
    {
        type            fixedValue;
        value           uniform (0 0 0.211369);
    }
}
