/*--------------------------------*- C++ -*----------------------------------*\
|       ______          _   __           ______                               |
|      / ____/  ___    / | / /          / ____/  ____   ____ _   ____ ___     |
|     / / __   / _ \  /  |/ /  ______  / /_     / __ \ / __ `/  / __ `__ \    |
|    / /_/ /  /  __/ / /|  /  /_____/ / __/    / /_/ // /_/ /  / / / / / /    |
|    \____/   \___/ /_/ |_/          /_/       \____/ \__,_/  /_/ /_/ /_/     |
|    Copyright (C) 2015 - 2022 EPFL                                           |
\*---------------------------------------------------------------------------*/
FoamFile
{
    version     2.0;
    format      ascii;
    class       dictionary;
    object      esfr_core__res;
}
// in case one wants to move control rods, he/she should here define the control rods he/she wants to move
// CRs must be aligned with z axis

zones 
 ( 

 ); 
//example
/*
controlRod
{
 startTime 200.5;
 endTime  201.7;
 speed	0.0; // positive entering the core
 initialDistanceFromMeshCR 0.0; // distance from the position defined in the mesh (postive towards the core) 
 followerName	follower; 
} 
*/
