
/*
 crossSection dictionary
 Generatd by serpentToFoamXS 
 04-Aug-2014
 From SERPENT results file: esfr_core__res
*/

/*
physical delayed neutron fraction and spectrum
*/

FoamFile
{
    version     2.0;
    format      ascii;
    class       dictionary;
    location    constant;
    object      esfr_core__res;
}

 energyGroups 1 ; 

 precGroups 8 ; 

 expansionFromNominal 5.0e-02 ; 
zones 
 ( 
 

 ); 
