
/*
 crossSection dictionary
 Generatd by serpentToFoamXS 
 14-Sep-2014
 From SERPENT results file: esfr_core__res
*/

/*
physical delayed neutron fraction and spectrum
*/

FoamFile
{
    version     2.0;
    format      ascii;
    class       dictionary;
    location    constant;
    object      esfr_core__res;
}

 energyGroups 1 ; 

 precGroups 8 ; 
 TcladRef 6.680000e+02 ; 
 TcladPerturbed 1.950000e+03 ; 
zones 
 ( 

 ); 
