/*--------------------------------*- C++ -*----------------------------------*\
| =========                 |                                                 |
| \\      /  F ield         | OpenFOAM: The Open Source CFD Toolbox           |
|  \\    /   O peration     | Version:  2206                                  |
|   \\  /    A nd           | Website:  www.openfoam.com                      |
|    \\/     M anipulation  |                                                 |
\*---------------------------------------------------------------------------*/
FoamFile
{
    version     2.0;
    format      ascii;
    arch        "LSB;label=32;scalar=64";
    class       polyBoundaryMesh;
    location    "constant/polyMesh";
    object      boundary;
}
// * * * * * * * * * * * * * * * * * * * * * * * * * * * * * * * * * * * * * //

3
(
    Wall
    {
        type            wall;
        inGroups        1(wall);
        nFaces          9000;
        startFace       869100;
    }
    Inlet
    {
        type            patch;
        nFaces          3900;
        startFace       878100;
    }
    Outlet
    {
        type            patch;
        nFaces          3900;
        startFace       882000;
    }
)

// ************************************************************************* //
